5
Coordinates from ORCA-job COO-Ag+
  C   -3.16162442948317     -0.01412739706704     -0.00896293394655
  O   -1.92237956462032      0.16210778407726     -0.03368676773143
  O   -4.02492046467585      0.89192179049983     -0.03228524838469
  H   -3.52321090556722     -1.05628083449516      0.03751580426730
  Ag  -2.31419463565341      2.42493865698511     -0.11806085420462
